Version 4
SHEET 1 10536 1540
WIRE -2576 -1792 -2576 -1824
WIRE -2416 -1792 -2416 -1824
WIRE -2288 -1792 -2288 -1824
WIRE -2144 -1792 -2144 -1824
WIRE -2000 -1792 -2000 -1824
WIRE -1888 -1792 -1888 -1824
WIRE -1712 -1792 -1712 -1824
WIRE -1328 -1792 -1328 -1840
WIRE -1584 -1776 -1584 -1808
WIRE -1472 -1776 -1472 -1824
WIRE -2576 -1680 -2576 -1712
WIRE -2416 -1680 -2416 -1712
WIRE -2288 -1680 -2288 -1712
WIRE -2144 -1680 -2144 -1712
WIRE -2000 -1680 -2000 -1712
WIRE -1888 -1680 -1888 -1712
WIRE -1712 -1680 -1712 -1712
WIRE 1408 -1680 1360 -1680
WIRE 1536 -1680 1488 -1680
WIRE -1584 -1664 -1584 -1696
WIRE -1472 -1664 -1472 -1696
WIRE -1328 -1648 -1328 -1712
WIRE 3520 -1616 3456 -1616
WIRE 3664 -1616 3664 -1696
WIRE 3664 -1616 3600 -1616
WIRE 3712 -1616 3664 -1616
WIRE 3840 -1616 3792 -1616
WIRE 1200 -1600 1136 -1600
WIRE 1344 -1600 1280 -1600
WIRE 1344 -1584 1344 -1600
WIRE 1360 -1584 1360 -1680
WIRE 1360 -1584 1344 -1584
WIRE 1392 -1584 1360 -1584
WIRE -2992 -1568 -3056 -1568
WIRE -2848 -1568 -2912 -1568
WIRE -960 -1568 -1072 -1568
WIRE -848 -1568 -896 -1568
WIRE -656 -1568 -848 -1568
WIRE 1536 -1568 1536 -1680
WIRE 1536 -1568 1456 -1568
WIRE 1664 -1568 1536 -1568
WIRE 1392 -1552 1376 -1552
WIRE -3248 -1536 -3280 -1536
WIRE -3088 -1536 -3168 -1536
WIRE 1184 -1504 1120 -1504
WIRE 1344 -1504 1344 -1584
WIRE 1344 -1504 1264 -1504
WIRE 3456 -1504 3456 -1616
WIRE 3840 -1488 3840 -1616
WIRE 4288 -1488 4288 -1536
WIRE -848 -1472 -848 -1568
WIRE -816 -1472 -848 -1472
WIRE 1376 -1472 1376 -1552
WIRE -656 -1456 -656 -1568
WIRE -656 -1456 -752 -1456
WIRE -512 -1456 -656 -1456
WIRE -3248 -1440 -3280 -1440
WIRE -3088 -1440 -3088 -1536
WIRE -3088 -1440 -3168 -1440
WIRE -3056 -1440 -3056 -1568
WIRE -3056 -1440 -3088 -1440
WIRE -2992 -1440 -3056 -1440
WIRE -1440 -1440 -1552 -1440
WIRE -1072 -1440 -1072 -1568
WIRE -1072 -1440 -1360 -1440
WIRE -1040 -1440 -1072 -1440
WIRE -912 -1440 -960 -1440
WIRE -816 -1440 -912 -1440
WIRE -2848 -1424 -2848 -1568
WIRE -2848 -1424 -2928 -1424
WIRE -2816 -1424 -2848 -1424
WIRE -1936 -1424 -1968 -1424
WIRE -1888 -1424 -1936 -1424
WIRE -1808 -1424 -1888 -1424
WIRE -1728 -1424 -1808 -1424
WIRE -912 -1424 -912 -1440
WIRE -2992 -1408 -3056 -1408
WIRE -2320 -1408 -2320 -1424
WIRE -2240 -1408 -2240 -1424
WIRE -2240 -1408 -2320 -1408
WIRE -2176 -1408 -2240 -1408
WIRE -2160 -1408 -2160 -1424
WIRE -2160 -1408 -2176 -1408
WIRE -2080 -1408 -2080 -1424
WIRE -2080 -1408 -2160 -1408
WIRE -2720 -1392 -2720 -1424
WIRE -2624 -1392 -2624 -1424
WIRE -2624 -1392 -2720 -1392
WIRE -2576 -1392 -2624 -1392
WIRE -2512 -1392 -2512 -1424
WIRE -2512 -1392 -2576 -1392
WIRE -2416 -1392 -2416 -1424
WIRE -2416 -1392 -2512 -1392
WIRE -1936 -1392 -1936 -1424
WIRE -2816 -1376 -2816 -1424
WIRE -2576 -1376 -2576 -1392
WIRE -2176 -1376 -2176 -1408
WIRE 3200 -1376 3104 -1376
WIRE 3344 -1376 3280 -1376
WIRE -3056 -1360 -3056 -1408
WIRE 3840 -1360 3840 -1408
WIRE 3984 -1360 3840 -1360
WIRE 4288 -1360 4288 -1408
WIRE 4288 -1360 4064 -1360
WIRE 4352 -1360 4288 -1360
WIRE -3248 -1344 -3280 -1344
WIRE -3088 -1344 -3088 -1440
WIRE -3088 -1344 -3168 -1344
WIRE 960 -1344 912 -1344
WIRE 1696 -1344 1040 -1344
WIRE 4560 -1344 4416 -1344
WIRE 4688 -1344 4560 -1344
WIRE 3456 -1328 3456 -1424
WIRE 4128 -1328 3456 -1328
WIRE 4288 -1328 4208 -1328
WIRE 4352 -1328 4288 -1328
WIRE 3456 -1296 3456 -1328
WIRE 3840 -1296 3840 -1360
WIRE -2816 -1280 -2816 -1296
WIRE -2752 -1280 -2816 -1280
WIRE -1360 -1280 -1504 -1280
WIRE 1760 -1280 1104 -1280
WIRE 2976 -1264 2912 -1264
WIRE 3104 -1264 3104 -1376
WIRE 3104 -1264 3056 -1264
WIRE 3200 -1264 3104 -1264
WIRE 4688 -1264 4688 -1344
WIRE -2816 -1248 -2816 -1280
WIRE -2640 -1248 -2672 -1248
WIRE -2512 -1248 -2560 -1248
WIRE -1440 -1248 -1440 -1312
WIRE 2064 -1248 1968 -1248
WIRE 2560 -1248 2144 -1248
WIRE 3344 -1248 3344 -1376
WIRE 3344 -1248 3264 -1248
WIRE 3392 -1248 3344 -1248
WIRE 3968 -1248 3904 -1248
WIRE -2304 -1232 -2368 -1232
WIRE -2176 -1232 -2224 -1232
WIRE -1504 -1232 -1504 -1280
WIRE -1472 -1232 -1504 -1232
WIRE 3200 -1232 3152 -1232
WIRE -1360 -1216 -1360 -1280
WIRE -1360 -1216 -1408 -1216
WIRE -1248 -1216 -1360 -1216
WIRE -1120 -1216 -1168 -1216
WIRE -1056 -1216 -1120 -1216
WIRE -912 -1216 -976 -1216
WIRE 80 -1216 48 -1216
WIRE 512 -1216 160 -1216
WIRE -2944 -1200 -2976 -1200
WIRE -1776 -1200 -1824 -1200
WIRE -1648 -1200 -1712 -1200
WIRE -1552 -1200 -1552 -1440
WIRE -1552 -1200 -1648 -1200
WIRE -1472 -1200 -1552 -1200
WIRE 912 -1200 912 -1344
WIRE 960 -1200 912 -1200
WIRE 1104 -1200 1104 -1280
WIRE 1104 -1200 1040 -1200
WIRE 3968 -1200 3968 -1248
WIRE 1264 -1184 1248 -1184
WIRE 1360 -1184 1328 -1184
WIRE 1552 -1184 1536 -1184
WIRE 1696 -1184 1696 -1344
WIRE 1696 -1184 1616 -1184
WIRE 3152 -1184 3152 -1232
WIRE 4288 -1184 4288 -1328
WIRE 4384 -1184 4288 -1184
WIRE 4560 -1184 4560 -1344
WIRE 4560 -1184 4464 -1184
WIRE -2976 -1168 -2976 -1200
WIRE -2944 -1152 -2944 -1200
WIRE -2752 -1152 -2752 -1280
WIRE -752 -1152 -800 -1152
WIRE -624 -1152 -672 -1152
WIRE -2816 -1136 -2816 -1168
WIRE -1440 -1136 -1440 -1184
WIRE -400 -1136 -448 -1136
WIRE -272 -1136 -320 -1136
WIRE -1168 -1120 -1328 -1120
WIRE 2192 -1120 1968 -1120
WIRE 2560 -1120 2560 -1248
WIRE 2560 -1120 2272 -1120
WIRE 2672 -1120 2560 -1120
WIRE 3456 -1120 3456 -1200
WIRE 3488 -1120 3456 -1120
WIRE 3648 -1120 3568 -1120
WIRE 3728 -1120 3648 -1120
WIRE 3840 -1120 3840 -1200
WIRE 3840 -1120 3808 -1120
WIRE -2992 -1088 -3024 -1088
WIRE -2848 -1088 -2896 -1088
WIRE -2800 -1088 -2848 -1088
WIRE -2672 -1088 -2672 -1248
WIRE -2672 -1088 -2704 -1088
WIRE -2608 -1088 -2672 -1088
WIRE -1248 -1088 -1248 -1136
WIRE 208 -1088 48 -1088
WIRE 512 -1088 512 -1216
WIRE 512 -1088 288 -1088
WIRE 624 -1088 512 -1088
WIRE 784 -1088 624 -1088
WIRE 912 -1088 912 -1200
WIRE 912 -1088 864 -1088
WIRE 960 -1088 912 -1088
WIRE 1104 -1088 1104 -1200
WIRE 1120 -1088 1104 -1088
WIRE 1248 -1088 1248 -1184
WIRE 1248 -1088 1200 -1088
WIRE 1264 -1088 1248 -1088
WIRE 1424 -1088 1424 -1104
WIRE 1424 -1088 1408 -1088
WIRE 1504 -1088 1504 -1104
WIRE 1536 -1088 1536 -1184
WIRE 1536 -1088 1504 -1088
WIRE 1552 -1088 1536 -1088
WIRE -2512 -1072 -2512 -1248
WIRE -2512 -1072 -2544 -1072
WIRE -2496 -1072 -2512 -1072
WIRE -2368 -1072 -2368 -1232
WIRE -2368 -1072 -2416 -1072
WIRE -2288 -1072 -2368 -1072
WIRE -2064 -1072 -2144 -1072
WIRE -1824 -1072 -1824 -1200
WIRE -1824 -1072 -1984 -1072
WIRE -1760 -1072 -1824 -1072
WIRE -1328 -1072 -1328 -1120
WIRE -1280 -1072 -1328 -1072
WIRE 1104 -1072 1104 -1088
WIRE 1104 -1072 1024 -1072
WIRE 1360 -1072 1360 -1184
WIRE 1360 -1072 1328 -1072
WIRE 1408 -1072 1408 -1088
WIRE 1408 -1072 1360 -1072
WIRE 1696 -1072 1696 -1184
WIRE 1696 -1072 1616 -1072
WIRE 1760 -1072 1696 -1072
WIRE -2848 -1056 -2848 -1088
WIRE -2608 -1056 -2672 -1056
WIRE -2176 -1056 -2176 -1232
WIRE -2176 -1056 -2224 -1056
WIRE -2160 -1056 -2176 -1056
WIRE -2144 -1056 -2144 -1072
WIRE -2144 -1056 -2160 -1056
WIRE -1648 -1056 -1648 -1200
WIRE -1648 -1056 -1696 -1056
WIRE -1488 -1056 -1648 -1056
WIRE -1168 -1056 -1168 -1120
WIRE -1168 -1056 -1216 -1056
WIRE 960 -1056 912 -1056
WIRE 1264 -1056 1232 -1056
WIRE 1552 -1056 1536 -1056
WIRE -2288 -1040 -2336 -1040
WIRE -1760 -1040 -1936 -1040
WIRE -1392 -1040 -1424 -1040
WIRE -1328 -1040 -1392 -1040
WIRE -1280 -1040 -1328 -1040
WIRE 2896 -1040 2896 -1056
WIRE -1488 -1024 -1568 -1024
WIRE -1120 -1008 -1120 -1216
WIRE -1056 -1008 -1120 -1008
WIRE -800 -1008 -800 -1152
WIRE -800 -1008 -976 -1008
WIRE -736 -1008 -800 -1008
WIRE -2672 -992 -2672 -1056
WIRE -624 -992 -624 -1152
WIRE -624 -992 -672 -992
WIRE -576 -992 -624 -992
WIRE -448 -992 -448 -1136
WIRE -448 -992 -496 -992
WIRE -384 -992 -448 -992
WIRE 2304 -992 1984 -992
WIRE 2560 -992 2560 -1120
WIRE 2560 -992 2384 -992
WIRE 4224 -992 4128 -992
WIRE 4400 -992 4304 -992
WIRE 4464 -992 4400 -992
WIRE -2336 -976 -2336 -1040
WIRE -2160 -976 -2160 -1056
WIRE -1248 -976 -1248 -1024
WIRE -1120 -976 -1120 -1008
WIRE -960 -976 -1120 -976
WIRE -784 -976 -880 -976
WIRE -736 -976 -784 -976
WIRE -272 -976 -272 -1136
WIRE -272 -976 -320 -976
WIRE -240 -976 -272 -976
WIRE -112 -976 -160 -976
WIRE 912 -976 912 -1056
WIRE 992 -976 912 -976
WIRE -3136 -960 -3216 -960
WIRE -3024 -960 -3024 -1088
WIRE -3024 -960 -3056 -960
WIRE -2144 -960 -2144 -1056
WIRE -2064 -960 -2144 -960
WIRE -1936 -960 -1936 -1040
WIRE -1936 -960 -1984 -960
WIRE -1728 -960 -1728 -1024
WIRE -384 -960 -608 -960
WIRE 320 -960 48 -960
WIRE 512 -960 512 -1088
WIRE 512 -960 400 -960
WIRE 912 -960 912 -976
WIRE 1232 -960 1232 -1056
WIRE 1536 -960 1536 -1056
WIRE 4128 -960 4128 -992
WIRE 4224 -960 4128 -960
WIRE 2896 -944 2896 -960
WIRE 2992 -944 2896 -944
WIRE 3216 -944 3072 -944
WIRE -784 -928 -784 -976
WIRE 4128 -928 4128 -960
WIRE 4400 -928 4400 -992
WIRE -3024 -912 -3024 -960
WIRE -2976 -912 -3024 -912
WIRE -2848 -912 -2848 -976
WIRE -2848 -912 -2912 -912
WIRE -1936 -912 -1936 -960
WIRE -1824 -912 -1824 -1072
WIRE 2896 -912 2896 -944
WIRE -1680 -896 -1744 -896
WIRE -1568 -896 -1568 -1024
WIRE -1568 -896 -1600 -896
WIRE -1536 -896 -1568 -896
WIRE -1392 -896 -1392 -1040
WIRE -1392 -896 -1456 -896
WIRE -1040 -880 -1120 -880
WIRE -848 -880 -960 -880
WIRE -608 -880 -608 -960
WIRE -560 -880 -608 -880
WIRE -448 -880 -480 -880
WIRE 4224 -880 4224 -960
WIRE 4224 -880 4192 -880
WIRE 4256 -880 4224 -880
WIRE 4336 -880 4256 -880
WIRE 2400 -864 1984 -864
WIRE 2560 -864 2560 -992
WIRE 2560 -864 2480 -864
WIRE 1760 -848 1696 -848
WIRE 4256 -848 4256 -880
WIRE -608 -832 -608 -880
WIRE 416 -832 80 -832
WIRE 512 -832 512 -960
WIRE 512 -832 496 -832
WIRE 3648 -832 3648 -1120
WIRE -3024 -800 -3024 -912
WIRE -2960 -800 -3024 -800
WIRE -1824 -800 -1824 -832
WIRE -1168 -800 -1168 -1056
WIRE -1120 -800 -1120 -880
WIRE -1120 -800 -1168 -800
WIRE -784 -800 -784 -832
WIRE -448 -800 -448 -880
WIRE 4400 -800 4400 -832
WIRE 4400 -800 4320 -800
WIRE -2848 -784 -2848 -912
WIRE -2848 -784 -2896 -784
WIRE -800 -784 -960 -784
WIRE 2896 -784 2896 -832
WIRE 2992 -784 2976 -784
WIRE -2960 -768 -3024 -768
WIRE 992 -768 992 -976
WIRE 1008 -768 992 -768
WIRE 1408 -768 1408 -1072
WIRE 1408 -768 1088 -768
WIRE 1696 -768 1696 -848
WIRE 1696 -768 1408 -768
WIRE -1680 -752 -1760 -752
WIRE -1392 -752 -1392 -896
WIRE -1392 -752 -1600 -752
WIRE 3216 -752 3216 -944
WIRE 3280 -752 3216 -752
WIRE 3408 -752 3360 -752
WIRE 4400 -752 4400 -800
WIRE 2976 -736 2976 -784
WIRE -3024 -720 -3024 -768
WIRE -960 -720 -960 -784
WIRE -912 -720 -960 -720
WIRE -800 -704 -800 -784
WIRE -800 -704 -848 -704
WIRE -608 -704 -608 -752
WIRE -608 -704 -800 -704
WIRE -1120 -688 -1120 -800
WIRE -1072 -688 -1120 -688
WIRE -912 -688 -992 -688
WIRE -1936 -672 -1936 -832
WIRE -1824 -672 -1824 -704
WIRE -1824 -672 -1936 -672
WIRE 3504 -672 3504 -784
WIRE -1936 -640 -1936 -672
WIRE 2976 -640 2976 -656
WIRE 3088 -640 2976 -640
WIRE 3184 -640 3168 -640
WIRE 3216 -640 3216 -752
WIRE 3216 -640 3184 -640
WIRE 3296 -640 3216 -640
WIRE 4256 -640 4256 -752
WIRE 4400 -640 4400 -672
WIRE 4400 -640 4256 -640
WIRE 4512 -640 4400 -640
WIRE 4528 -640 4512 -640
WIRE 800 -624 672 -624
WIRE 3408 -624 3408 -752
WIRE 3408 -624 3360 -624
WIRE 3440 -624 3408 -624
WIRE 4512 -624 4512 -640
WIRE 2976 -608 2976 -640
WIRE 3296 -608 3248 -608
WIRE 4400 -608 4400 -640
WIRE 672 -576 672 -624
WIRE 704 -576 672 -576
WIRE 800 -560 800 -624
WIRE 800 -560 768 -560
WIRE 944 -560 800 -560
WIRE 1072 -560 944 -560
WIRE 1248 -560 1152 -560
WIRE 240 -544 192 -544
WIRE 368 -544 304 -544
WIRE 704 -544 368 -544
WIRE 1744 -544 1744 -592
WIRE 4256 -544 4256 -640
WIRE 4272 -544 4256 -544
WIRE 2864 -528 2864 -544
WIRE 3504 -528 3504 -576
WIRE 3648 -528 3648 -752
WIRE 3648 -528 3504 -528
WIRE 3904 -528 3888 -528
WIRE 4128 -528 4128 -832
WIRE 4128 -528 3904 -528
WIRE 4400 -496 4400 -528
WIRE 4400 -496 4336 -496
WIRE 2976 -480 2976 -528
WIRE 3648 -480 3648 -528
WIRE 4128 -480 4128 -528
WIRE 4400 -480 4400 -496
WIRE -304 -464 -304 -512
WIRE 880 -464 752 -464
WIRE 1248 -464 1248 -560
WIRE 1328 -464 1248 -464
WIRE 1744 -448 1744 -464
WIRE 1840 -448 1744 -448
WIRE 2064 -448 1920 -448
WIRE 2864 -432 2864 -448
WIRE 2976 -432 2864 -432
WIRE 3184 -432 3184 -640
WIRE 3184 -432 3056 -432
WIRE 4256 -432 4192 -432
WIRE 4272 -432 4272 -448
WIRE 4272 -432 4256 -432
WIRE 4336 -432 4272 -432
WIRE 192 -416 192 -544
WIRE 192 -416 32 -416
WIRE 240 -416 192 -416
WIRE 752 -416 752 -464
WIRE 784 -416 752 -416
WIRE 1744 -416 1744 -448
WIRE 368 -400 368 -544
WIRE 368 -400 304 -400
WIRE 560 -400 368 -400
WIRE 880 -400 880 -464
WIRE 880 -400 848 -400
WIRE 960 -400 880 -400
WIRE 1120 -400 960 -400
WIRE 1248 -400 1248 -464
WIRE 1248 -400 1200 -400
WIRE 2864 -400 2864 -432
WIRE 240 -384 80 -384
WIRE 672 -384 624 -384
WIRE 784 -384 672 -384
WIRE 560 -368 512 -368
WIRE 816 -352 816 -368
WIRE -304 -336 -304 -384
WIRE -256 -336 -304 -336
WIRE -160 -336 -256 -336
WIRE -48 -336 -48 -416
WIRE -48 -336 -80 -336
WIRE 3648 -336 3648 -400
WIRE 4128 -336 4128 -384
WIRE 4256 -336 4256 -432
WIRE 4256 -336 4128 -336
WIRE -304 -304 -304 -336
WIRE -48 -304 -48 -336
WIRE 80 -304 80 -384
WIRE 80 -304 32 -304
WIRE 272 -304 272 -368
WIRE 1744 -288 1744 -336
WIRE 2864 -272 2864 -320
WIRE 80 -256 80 -304
WIRE 192 -256 192 -416
WIRE 400 -256 336 -256
WIRE 512 -256 512 -368
WIRE 512 -256 480 -256
WIRE 544 -256 512 -256
WIRE 672 -256 672 -384
WIRE 672 -256 624 -256
WIRE 4128 -256 4128 -336
WIRE 4224 -256 4128 -256
WIRE 4400 -256 4400 -384
WIRE 4400 -256 4304 -256
WIRE -256 -240 -256 -336
WIRE -192 -240 -256 -240
WIRE -48 -240 -48 -304
WIRE -48 -240 -112 -240
WIRE 1840 -240 1840 -256
WIRE -3072 -192 -3184 -192
WIRE -2928 -192 -2992 -192
WIRE -2832 -192 -2928 -192
WIRE -2752 -192 -2832 -192
WIRE -2576 -192 -2672 -192
WIRE -2496 -192 -2576 -192
WIRE -2352 -192 -2432 -192
WIRE -2224 -192 -2352 -192
WIRE -2096 -192 -2160 -192
WIRE -2000 -192 -2096 -192
WIRE -1936 -192 -2000 -192
WIRE -1776 -192 -1856 -192
WIRE -1696 -192 -1776 -192
WIRE -1552 -192 -1632 -192
WIRE -1360 -192 -1472 -192
WIRE 4400 -192 4400 -256
WIRE -2352 -160 -2352 -192
WIRE -1360 -160 -1360 -192
WIRE -304 -160 -304 -224
WIRE 192 -144 192 -176
WIRE 1840 -144 1840 -160
WIRE 1936 -144 1840 -144
WIRE 2032 -144 2016 -144
WIRE 2064 -144 2064 -448
WIRE 2064 -144 2032 -144
WIRE 2256 -144 2064 -144
WIRE -2928 -128 -2928 -192
WIRE 2368 -128 2320 -128
WIRE 2448 -128 2368 -128
WIRE -2832 -112 -2832 -192
WIRE -2720 -112 -2832 -112
WIRE -2096 -112 -2096 -192
WIRE 1840 -112 1840 -144
WIRE 2256 -112 2208 -112
WIRE -2576 -96 -2576 -192
WIRE -2576 -96 -2656 -96
WIRE -2000 -96 -2000 -192
WIRE -1920 -96 -2000 -96
WIRE 336 -96 256 -96
WIRE 672 -96 672 -256
WIRE 672 -96 416 -96
WIRE -2720 -80 -2752 -80
WIRE -1776 -80 -1776 -192
WIRE -1776 -80 -1856 -80
WIRE -1728 -80 -1776 -80
WIRE -1920 -64 -1968 -64
WIRE -2752 -48 -2752 -80
WIRE -1360 -48 -1360 -80
WIRE -1248 -48 -1360 -48
WIRE -1168 -48 -1248 -48
WIRE -2576 -32 -2576 -96
WIRE -2352 -32 -2352 -80
WIRE -1056 -32 -1056 -96
WIRE -1056 -32 -1104 -32
WIRE -1024 -32 -1056 -32
WIRE -1008 -32 -1024 -32
WIRE -864 -32 -928 -32
WIRE 1744 -32 1744 -48
WIRE -1168 -16 -1200 -16
WIRE 80 -16 80 -176
WIRE 192 -16 192 -48
WIRE 192 -16 80 -16
WIRE 784 -16 656 -16
WIRE 2208 -16 2208 -112
WIRE 2240 -16 2208 -16
WIRE 2368 -16 2368 -128
WIRE 2368 -16 2320 -16
WIRE -2096 0 -2096 -32
WIRE 80 16 80 -16
WIRE 1840 16 1840 -32
WIRE 2208 16 2208 -16
WIRE 656 32 656 -16
WIRE 688 32 656 32
WIRE -1200 48 -1200 -16
WIRE -1024 48 -1024 -32
WIRE -1024 48 -1200 48
WIRE 784 48 784 -16
WIRE 784 48 752 48
WIRE 928 48 784 48
WIRE 1056 48 928 48
WIRE 1232 48 1136 48
WIRE 224 64 176 64
WIRE 352 64 288 64
WIRE 688 64 352 64
WIRE 1744 64 1744 48
WIRE 1856 64 1744 64
WIRE 2032 64 2032 -144
WIRE 2032 64 1936 64
WIRE -2576 96 -2576 48
WIRE -2480 96 -2576 96
WIRE -2160 96 -2416 96
WIRE -2128 96 -2160 96
WIRE -1952 96 -2128 96
WIRE 1744 96 1744 64
WIRE -1840 112 -1888 112
WIRE -1824 112 -1840 112
WIRE -1744 112 -1760 112
WIRE -1600 112 -1664 112
WIRE -1536 112 -1600 112
WIRE -1360 112 -1456 112
WIRE -1248 112 -1248 -48
WIRE -1248 112 -1280 112
WIRE -2576 128 -2576 96
WIRE -2128 128 -2128 96
WIRE -1952 128 -2016 128
WIRE -1248 128 -1248 112
WIRE -2304 144 -2320 144
WIRE -2160 144 -2160 96
WIRE -2160 144 -2240 144
WIRE -320 144 -320 96
WIRE 864 144 736 144
WIRE 1232 144 1232 48
WIRE 1312 144 1232 144
WIRE -1840 176 -1840 112
WIRE 176 192 176 64
WIRE 176 192 16 192
WIRE 224 192 176 192
WIRE 736 192 736 144
WIRE 768 192 736 192
WIRE 352 208 352 64
WIRE 352 208 288 208
WIRE 544 208 352 208
WIRE 864 208 864 144
WIRE 864 208 832 208
WIRE 944 208 864 208
WIRE 1104 208 944 208
WIRE 1232 208 1232 144
WIRE 1232 208 1184 208
WIRE -1248 224 -1248 192
WIRE 224 224 64 224
WIRE 656 224 608 224
WIRE 768 224 656 224
WIRE 1744 224 1744 176
WIRE -2576 240 -2576 208
WIRE -2128 240 -2128 208
WIRE 544 240 496 240
WIRE 800 256 800 240
WIRE -320 272 -320 224
WIRE -272 272 -320 272
WIRE -176 272 -272 272
WIRE -64 272 -64 192
WIRE -64 272 -96 272
WIRE -2016 288 -2016 128
WIRE -1840 288 -1840 240
WIRE -1840 288 -2016 288
WIRE -1600 288 -1600 112
WIRE -1600 288 -1840 288
WIRE -320 304 -320 272
WIRE -64 304 -64 272
WIRE 64 304 64 224
WIRE 64 304 16 304
WIRE 256 304 256 240
WIRE -3072 352 -3184 352
WIRE -2928 352 -2992 352
WIRE -2832 352 -2928 352
WIRE -2752 352 -2832 352
WIRE -2576 352 -2672 352
WIRE -2496 352 -2576 352
WIRE -2352 352 -2432 352
WIRE -2224 352 -2352 352
WIRE -2096 352 -2160 352
WIRE -2000 352 -2096 352
WIRE -1936 352 -2000 352
WIRE -1776 352 -1856 352
WIRE -1696 352 -1776 352
WIRE -1552 352 -1632 352
WIRE -1360 352 -1472 352
WIRE 64 352 64 304
WIRE 176 352 176 192
WIRE 384 352 320 352
WIRE 496 352 496 240
WIRE 496 352 464 352
WIRE 528 352 496 352
WIRE 656 352 656 224
WIRE 656 352 608 352
WIRE -272 368 -272 272
WIRE -208 368 -272 368
WIRE -64 368 -64 304
WIRE -64 368 -128 368
WIRE -2352 384 -2352 352
WIRE -1360 384 -1360 352
WIRE -2928 416 -2928 352
WIRE -2832 432 -2832 352
WIRE -2720 432 -2832 432
WIRE -2096 432 -2096 352
WIRE -2576 448 -2576 352
WIRE -2576 448 -2656 448
WIRE -2000 448 -2000 352
WIRE -1920 448 -2000 448
WIRE -320 448 -320 384
WIRE -2720 464 -2752 464
WIRE -1776 464 -1776 352
WIRE -1776 464 -1856 464
WIRE -1728 464 -1776 464
WIRE 176 464 176 432
WIRE -1920 480 -1968 480
WIRE -2752 496 -2752 464
WIRE -1360 496 -1360 464
WIRE -1248 496 -1360 496
WIRE -1168 496 -1248 496
WIRE -2576 512 -2576 448
WIRE -2352 512 -2352 464
WIRE -1056 512 -1056 448
WIRE -1056 512 -1104 512
WIRE -1024 512 -1056 512
WIRE -1008 512 -1024 512
WIRE -864 512 -928 512
WIRE 320 512 240 512
WIRE 656 512 656 352
WIRE 656 512 400 512
WIRE -1168 528 -1200 528
WIRE -2096 544 -2096 512
WIRE -1200 592 -1200 528
WIRE -1024 592 -1024 512
WIRE -1024 592 -1200 592
WIRE 64 592 64 432
WIRE 176 592 176 560
WIRE 176 592 64 592
WIRE 64 624 64 592
WIRE -2576 640 -2576 592
WIRE -2480 640 -2576 640
WIRE -2160 640 -2416 640
WIRE -2128 640 -2160 640
WIRE -1952 640 -2128 640
WIRE -1840 656 -1888 656
WIRE -1824 656 -1840 656
WIRE -1744 656 -1760 656
WIRE -1600 656 -1664 656
WIRE -1536 656 -1600 656
WIRE -1360 656 -1456 656
WIRE -1248 656 -1248 496
WIRE -1248 656 -1280 656
WIRE -2576 672 -2576 640
WIRE -2128 672 -2128 640
WIRE -1952 672 -2016 672
WIRE -1248 672 -1248 656
WIRE -2304 688 -2320 688
WIRE -2160 688 -2160 640
WIRE -2160 688 -2240 688
WIRE -1840 720 -1840 656
WIRE -1248 768 -1248 736
WIRE -2576 784 -2576 752
WIRE -2128 784 -2128 752
WIRE -2016 832 -2016 672
WIRE -1840 832 -1840 784
WIRE -1840 832 -2016 832
WIRE -1600 832 -1600 656
WIRE -1600 832 -1840 832
FLAG -2144 -1680 0
FLAG -2000 -1824 0
FLAG -2144 -1824 V+
FLAG -2000 -1680 V-
FLAG -2288 -1680 0
FLAG -2288 -1824 KEYBOARD
FLAG -1728 -1088 V+
FLAG -1936 -640 0
FLAG -1456 -1072 V+
FLAG -1328 -1040 SQUARE
FLAG -1744 -896 VREF
FLAG -1472 -1824 VREF
FLAG -1440 -1312 V+
FLAG -1440 -1136 V-
FLAG -2976 -1168 0
FLAG -3024 -720 0
FLAG -2928 -816 V+
FLAG -2928 -752 V-
FLAG -3216 -960 V-
FLAG -3056 -1360 0
FLAG -2960 -1456 V+
FLAG -2960 -1392 V-
FLAG -3280 -1536 KEYBOARD
FLAG -3280 -1440 COARSE
FLAG -3280 -1344 FINE
FLAG -2816 -1136 0
FLAG -2336 -976 0
FLAG -2256 -1088 V+
FLAG -2256 -1024 V-
FLAG -2672 -992 0
FLAG -2576 -1104 V+
FLAG -2576 -1040 V-
FLAG -1728 -960 0
FLAG -1456 -1008 0
FLAG -1712 -1680 0
FLAG -1712 -1824 5
FLAG -2160 -976 VIN
FLAG -2576 -1680 0
FLAG -2416 -1680 0
FLAG -2576 -1824 COARSE
FLAG -2416 -1824 FINE
FLAG -1472 -1664 0
FLAG -1248 -1136 V+
FLAG -1248 -976 V-
FLAG -784 -800 0
FLAG -448 -800 0
FLAG -704 -1024 V+
FLAG -880 -736 V+
FLAG -704 -960 V-
FLAG -880 -672 V-
FLAG -112 -976 SAW
FLAG -352 -1008 V+
FLAG -352 -944 V-
FLAG -1888 -1680 0
FLAG -1888 -1824 -5
FLAG -912 -1216 -5
FLAG -512 -1456 Sine
FLAG -1648 -1200 TRIANGLE
FLAG 3664 -1696 V+
FLAG 3968 -1200 0
FLAG 3152 -1184 0
FLAG 3232 -1280 V+
FLAG 3232 -1216 V-
FLAG 4384 -1312 V+
FLAG 4384 -1376 V-
FLAG -1584 -1664 0
FLAG -1584 -1808 LFO
FLAG 4288 -1536 0
FLAG 4688 -1264 SIGNAL_OUT
FLAG 3648 -336 V-
FLAG -1328 -1648 0
FLAG -1328 -1840 GATE
FLAG 1232 -880 0
FLAG 1536 -880 0
FLAG 912 -880 0
FLAG 1760 -848 V_BP
FLAG 1760 -1072 V_LP
FLAG 1760 -1280 V_HP
FLAG 1136 -1600 V_HP
FLAG 1120 -1504 V_LP
FLAG 1664 -1568 Notch
FLAG 1376 -1472 0
FLAG -2512 -1504 S2
FLAG -2416 -1504 S3
FLAG 992 -1104 V+
FLAG 1296 -1104 V+
FLAG 1584 -1104 V+
FLAG 1424 -1600 V+
FLAG 992 -1040 V-
FLAG 1296 -1040 V-
FLAG 1584 -1040 V-
FLAG 1424 -1536 V-
FLAG -2720 -1504 S0
FLAG -2624 -1504 S1
FLAG 48 -1216 SAW
FLAG 48 -1088 SQUARE
FLAG 80 -832 TRIANGLE
FLAG 48 -960 Sine
FLAG 624 -1088 wave_mux_out
FLAG -784 -1488 V+
FLAG -784 -1424 V-
FLAG -912 -1360 0
FLAG 2672 -1120 mux_filter_out
FLAG 2912 -1264 mux_filter_out
FLAG 96 -1264 S0
FLAG 144 -1264 0
FLAG 272 -1136 0
FLAG 384 -1008 0
FLAG 480 -880 0
FLAG 224 -1136 S1
FLAG 336 -1008 S2
FLAG 432 -880 S3
FLAG 2128 -1296 0
FLAG 2256 -1168 0
FLAG 2368 -1040 0
FLAG 2464 -912 0
FLAG 1968 -1248 Notch
FLAG 1984 -992 V_HP
FLAG 1984 -864 V_LP
FLAG 1968 -1120 V_BP
FLAG -2176 -1376 0
FLAG -2320 -1504 S4
FLAG 2080 -1296 S4
FLAG 2208 -1168 S5
FLAG -2240 -1504 S5
FLAG 2320 -1040 S6
FLAG -2160 -1504 S6
FLAG 2416 -912 S7
FLAG -2080 -1504 S7
FLAG -2576 -1376 0
FLAG -2752 -48 0
FLAG -2352 -32 0
FLAG -1248 224 0
FLAG -2128 240 0
FLAG -2576 240 0
FLAG -3184 -192 GATE
FLAG -2688 -64 V+
FLAG -1888 -48 V+
FLAG -1920 144 V+
FLAG -1136 0 V+
FLAG -2688 -128 V-
FLAG -1888 -112 V-
FLAG -1136 -64 V-
FLAG -1920 80 V-
FLAG -2096 0 0
FLAG -1056 -96 OUT
FLAG -1968 -64 OUT
FLAG -1728 -80 STATE
FLAG -2320 144 STATE
FLAG -2928 -48 V-
FLAG -864 -32 AMP_ADSR
FLAG -2752 496 0
FLAG -2352 512 0
FLAG -1248 768 0
FLAG -2128 784 0
FLAG -2576 784 0
FLAG -3184 352 GATE
FLAG -2688 480 V+
FLAG -1888 496 V+
FLAG -1920 688 V+
FLAG -1136 544 V+
FLAG -2688 416 V-
FLAG -1888 432 V-
FLAG -1136 480 V-
FLAG -1920 624 V-
FLAG -2096 544 0
FLAG -1056 448 OUT
FLAG -1968 480 OUT
FLAG -1728 464 STATE
FLAG -2320 688 STATE
FLAG -2928 496 V-
FLAG -864 512 VCF_ADSR
FLAG 4528 -640 Voutput
FLAG 4512 -544 0
FLAG 3904 -528 SIGNAL_OUT
FLAG 4464 -992 V+
FLAG 4400 -192 V-
FLAG 272 -432 V+
FLAG 80 16 0
FLAG 592 -416 V+
FLAG 336 -256 VREF
FLAG 736 -528 V-
FLAG 272 -304 0
FLAG 592 -352 0
FLAG -304 -160 0
FLAG -304 -512 V+
FLAG 944 -560 VTRIANGLE
FLAG 736 -592 V+
FLAG 960 -400 VSQUARE
FLAG 816 -432 V+
FLAG 816 -352 V-
FLAG 1184 -448 0
FLAG 1136 -608 0
FLAG 1088 -608 S8
FLAG 1136 -448 S9
FLAG 1328 -464 AMP_LFO
FLAG 256 176 V+
FLAG 64 624 0
FLAG 576 192 V+
FLAG 320 352 VREF
FLAG 720 80 V-
FLAG 256 304 0
FLAG 576 256 0
FLAG -320 448 0
FLAG -320 96 V+
FLAG 928 48 VTRIANGLE
FLAG 720 16 V+
FLAG 944 208 VSQUARE
FLAG 800 176 V+
FLAG 800 256 V-
FLAG 1168 160 0
FLAG 1120 0 0
FLAG 1072 0 S10
FLAG 1120 160 S11
FLAG 1312 144 VCF_LFO
FLAG 2288 -96 V+
FLAG 2288 -160 V-
FLAG 1840 -256 VCF_ADSR
FLAG 1744 -592 V+
FLAG 1744 -288 V-
FLAG 1840 16 0
FLAG 2448 -128 VCR_control
FLAG 2208 96 0
FLAG 1744 -48 VCF_LFO
FLAG 1744 224 0
FLAG 3504 -784 0
FLAG 3328 -656 V+
FLAG 3328 -592 V-
FLAG 2976 -784 AMP_ADSR
FLAG 2896 -1056 V+
FLAG 2896 -784 V-
FLAG 2976 -480 0
FLAG 2864 -544 AMP_LFO
FLAG 2864 -272 0
FLAG 3248 -608 0
FLAG -1936 -1392 0
FLAG -1968 -1504 S8
FLAG -1888 -1504 S9
FLAG -1808 -1504 S10
FLAG -1728 -1504 S11
SYMBOL voltage -2144 -1808 R0
WINDOW 123 0 0 Left 0
WINDOW 39 0 0 Left 0
SYMATTR InstName V1
SYMATTR Value 15
SYMBOL voltage -2000 -1808 R0
WINDOW 123 0 0 Left 0
WINDOW 39 0 0 Left 0
SYMATTR InstName V2
SYMATTR Value 15
SYMBOL voltage -2288 -1808 R0
WINDOW 123 0 0 Left 0
WINDOW 39 0 0 Left 0
SYMATTR InstName V3
SYMATTR Value 3.583704
SYMBOL Opamps\\UniversalOpamp2 -1728 -1056 R0
SYMATTR InstName U1
SYMBOL res -1968 -1088 R90
WINDOW 0 0 56 VBottom 2
WINDOW 3 32 56 VTop 2
SYMATTR InstName R1
SYMATTR Value 100k
SYMBOL res -1968 -976 R90
WINDOW 0 0 56 VBottom 2
WINDOW 3 32 56 VTop 2
SYMATTR InstName R2
SYMATTR Value 47K
SYMBOL res -1808 -816 R180
WINDOW 0 36 76 Left 2
WINDOW 3 36 40 Left 2
SYMATTR InstName R3
SYMATTR Value 47K
SYMBOL res -1920 -816 R180
WINDOW 0 36 76 Left 2
WINDOW 3 36 40 Left 2
SYMATTR InstName R4
SYMATTR Value 47K
SYMBOL npn -1760 -800 M0
SYMATTR InstName Q1
SYMATTR Value 2N2222
SYMBOL cap -1712 -1216 R90
WINDOW 0 0 32 VBottom 2
WINDOW 3 32 32 VTop 2
SYMATTR InstName C1
SYMATTR Value 1.8nF
SYMBOL Opamps\\UniversalOpamp2 -1456 -1040 R0
SYMATTR InstName U2
SYMBOL res -1440 -912 R90
WINDOW 0 0 56 VBottom 2
WINDOW 3 32 56 VTop 2
SYMATTR InstName R5
SYMATTR Value 100k
SYMBOL res -1584 -912 R90
WINDOW 0 0 56 VBottom 2
WINDOW 3 32 56 VTop 2
SYMATTR InstName R6
SYMATTR Value 47k
SYMBOL res -1584 -768 R90
WINDOW 0 0 56 VBottom 2
WINDOW 3 32 56 VTop 2
SYMATTR InstName R7
SYMATTR Value 100K
SYMBOL voltage -1472 -1792 R0
WINDOW 123 0 0 Left 2
WINDOW 39 0 0 Left 2
SYMATTR InstName V6
SYMATTR Value 2.5V
SYMBOL OpAmps\\OP07 -1440 -1280 R0
SYMATTR InstName U3
SYMBOL res -3040 -976 R90
WINDOW 0 0 56 VBottom 2
WINDOW 3 32 56 VTop 2
SYMATTR InstName R8
SYMATTR Value 3300K
SYMBOL res -2864 -1072 R0
SYMATTR InstName R9
SYMATTR Value 22k
SYMBOL cap -2912 -928 R90
WINDOW 0 0 32 VBottom 2
WINDOW 3 32 32 VTop 2
SYMATTR InstName C2
SYMATTR Value 100p
SYMBOL OpAmps\\OP07 -2928 -848 R0
SYMATTR InstName U4
SYMBOL OpAmps\\OP07 -2960 -1488 R0
SYMATTR InstName U5
SYMBOL res -3152 -1552 R90
WINDOW 0 0 56 VBottom 2
WINDOW 3 32 56 VTop 2
SYMATTR InstName R10
SYMATTR Value 100k
SYMBOL res -3152 -1456 R90
WINDOW 0 0 56 VBottom 2
WINDOW 3 32 56 VTop 2
SYMATTR InstName R11
SYMATTR Value 100k
SYMBOL res -3152 -1360 R90
WINDOW 0 0 56 VBottom 2
WINDOW 3 32 56 VTop 2
SYMATTR InstName R12
SYMATTR Value 3300k
SYMBOL res -2896 -1584 R90
WINDOW 0 0 56 VBottom 2
WINDOW 3 32 56 VTop 2
SYMATTR InstName R13
SYMATTR Value 2k
SYMBOL res -2832 -1392 R0
SYMATTR InstName R14
SYMATTR Value 10
SYMBOL res -2832 -1264 R0
SYMATTR InstName R15
SYMATTR Value 90
SYMBOL pnp -2704 -1152 R90
SYMATTR InstName Q2
SYMATTR Value 2N2907
SYMBOL pnp -2992 -1152 M90
SYMATTR InstName Q3
SYMATTR Value 2N2907
SYMBOL OpAmps\\OP07 -2256 -1120 R0
SYMATTR InstName U6
SYMBOL res -2208 -1248 R90
WINDOW 0 0 56 VBottom 2
WINDOW 3 32 56 VTop 2
SYMATTR InstName R16
SYMATTR Value 20K
SYMBOL OpAmps\\OP07 -2576 -1136 R0
SYMATTR InstName U7
SYMBOL res -2544 -1264 R90
WINDOW 0 0 56 VBottom 2
WINDOW 3 32 56 VTop 2
SYMATTR InstName R17
SYMATTR Value 10k
SYMBOL res -2400 -1088 R90
WINDOW 0 0 56 VBottom 2
WINDOW 3 32 56 VTop 2
SYMATTR InstName R18
SYMATTR Value 10k
SYMBOL voltage -1712 -1808 R0
WINDOW 123 0 0 Left 0
WINDOW 39 0 0 Left 0
SYMATTR InstName V7
SYMATTR Value 5
SYMBOL voltage -2576 -1808 R0
WINDOW 123 0 0 Left 0
WINDOW 39 0 0 Left 0
SYMATTR InstName V11
SYMATTR Value 0
SYMBOL voltage -2416 -1808 R0
WINDOW 123 0 0 Left 0
WINDOW 39 0 0 Left 0
SYMATTR InstName V12
SYMATTR Value 1
SYMBOL OpAmps\\OP07 -1248 -1120 R0
SYMATTR InstName U8
SYMBOL OpAmps\\OP07 -704 -1056 R0
SYMATTR InstName U9
SYMBOL OpAmps\\OP07 -880 -768 R0
SYMATTR InstName U10
SYMBOL OpAmps\\OP07 -352 -1040 R0
SYMATTR InstName U11
SYMBOL res -864 -992 R90
WINDOW 0 0 56 VBottom 2
WINDOW 3 32 56 VTop 2
SYMATTR InstName R19
SYMATTR Value 100K
SYMBOL res -656 -1168 R90
WINDOW 0 0 56 VBottom 2
WINDOW 3 32 56 VTop 2
SYMATTR InstName R20
SYMATTR Value 100K
SYMBOL res -960 -1024 R90
WINDOW 0 0 56 VBottom 2
WINDOW 3 32 56 VTop 2
SYMATTR InstName R21
SYMATTR Value 100K
SYMBOL npn -848 -928 R0
SYMATTR InstName Q4
SYMATTR Value 2N2222
SYMBOL res -944 -896 R90
WINDOW 0 0 56 VBottom 2
WINDOW 3 32 56 VTop 2
SYMATTR InstName R22
SYMATTR Value 10K
SYMBOL res -976 -704 R90
WINDOW 0 0 56 VBottom 2
WINDOW 3 32 56 VTop 2
SYMATTR InstName R23
SYMATTR Value 10K
SYMBOL res -480 -1008 R90
WINDOW 0 0 56 VBottom 2
WINDOW 3 32 56 VTop 2
SYMATTR InstName R24
SYMATTR Value 10k
SYMBOL res -304 -1152 R90
WINDOW 0 0 56 VBottom 2
WINDOW 3 32 56 VTop 2
SYMATTR InstName R25
SYMATTR Value 10K
SYMBOL res -144 -992 R90
WINDOW 0 0 56 VBottom 2
WINDOW 3 34 54 VTop 2
SYMATTR InstName R26
SYMATTR Value 1K
SYMBOL res -592 -736 R180
WINDOW 0 36 76 Left 2
WINDOW 3 36 40 Left 2
SYMATTR InstName R27
SYMATTR Value 100K
SYMBOL res -576 -864 R270
WINDOW 0 32 56 VTop 2
WINDOW 3 0 56 VBottom 2
SYMATTR InstName R28
SYMATTR Value 2.2K
SYMBOL voltage -1888 -1808 R0
WINDOW 123 0 0 Left 0
WINDOW 39 0 0 Left 0
SYMATTR InstName V13
SYMATTR Value -5
SYMBOL res -1264 -1200 R270
WINDOW 0 32 56 VTop 2
WINDOW 3 0 56 VBottom 2
SYMATTR InstName R32
SYMATTR Value 10K
SYMBOL res -1072 -1200 R270
WINDOW 0 32 56 VTop 2
WINDOW 3 0 56 VBottom 2
SYMATTR InstName R33
SYMATTR Value 21k
SYMBOL npn 3392 -1296 R0
SYMATTR InstName Q5
SYMATTR Value 2N3904
SYMBOL npn 3904 -1296 M0
SYMATTR InstName Q6
SYMATTR Value 2N3904
SYMBOL res 3440 -1520 R0
SYMATTR InstName gain_pot_1
SYMATTR Value 10k
SYMBOL res 3824 -1504 R0
SYMATTR InstName gain_pot_2
SYMATTR Value 10k
SYMBOL OpAmps\\OP07 4384 -1280 M180
SYMATTR InstName U16
SYMBOL res 3632 -496 R0
SYMATTR InstName R45
SYMATTR Value 15K
SYMBOL res 3664 -736 R180
WINDOW 0 36 76 Left 2
WINDOW 3 47 53 Left 2
SYMATTR InstName R46
SYMATTR Value 33K
SYMBOL OpAmps\\OP07 3232 -1312 R0
SYMATTR InstName U18
SYMBOL res 3072 -1280 R90
WINDOW 0 0 56 VBottom 2
WINDOW 3 32 56 VTop 2
SYMATTR InstName R49
SYMATTR Value 100K
SYMBOL res 3296 -1392 R90
WINDOW 0 0 56 VBottom 2
WINDOW 3 32 56 VTop 2
SYMATTR InstName R50
SYMATTR Value 470
SYMBOL res 4080 -1376 R90
WINDOW 0 0 56 VBottom 2
WINDOW 3 32 56 VTop 2
SYMATTR InstName R51
SYMATTR Value 10K
SYMBOL res 4224 -1344 R90